support/cimhub_docker/python_scripts/optimized_dss/archive/dss/master_base.dss
clear
new Circuit.source phases=3 bus1=sourcebus basekv=115.000 pu=1.00000 angle=30.00000 r0=0.17960 x0=0.53881 r1=0.16038 x1=0.64151





new Linecode.1p_ug_code4 nphases=1 units=mi rmatrix=[0.405140 ] xmatrix=[0.410718 ] cmatrix=[3.65371 ]
new Linecode.2p_oh_code0 nphases=2 units=mi rmatrix=[0.139476 | 0.0467868 0.140665 ] xmatrix=[0.328574 | 0.117318 0.324642 ] cmatrix=[4.13564 | -0.852854 4.18011 ]
new Linecode.3p_code7 nphases=3 units=mi rmatrix=[0.139476 | 0.0475488 0.142220 | 0.0467868 0.0481584 0.140665 ] xmatrix=[0.328574 | 0.152918 0.319491 | 0.117318 0.129113 0.324642 ] cmatrix=[4.58927 | -1.48103 4.83537 | -0.564473 -0.941462 4.36339 ]
new Linecode.3p_oh_code6 nphases=3 units=mi rmatrix=[0.139476 | 0.0475488 0.142220 | 0.0467868 0.0481584 0.140665 ] xmatrix=[0.328574 | 0.152918 0.319491 | 0.117318 0.129113 0.324642 ] cmatrix=[4.58927 | -1.48103 4.83537 | -0.564473 -0.941462 4.36339 ]
new Linecode.3p_oh_code1 nphases=3 units=mi rmatrix=[0.139476 | 0.0475488 0.142220 | 0.0467868 0.0481584 0.140665 ] xmatrix=[0.328574 | 0.152918 0.319491 | 0.117318 0.129113 0.324642 ] cmatrix=[4.58927 | -1.48103 4.83537 | -0.564473 -0.941462 4.36339 ]
new Linecode.3p_ug_code5 nphases=3 units=mi rmatrix=[0.139476 | 0.0475488 0.142220 | 0.0467868 0.0481584 0.140665 ] xmatrix=[0.328574 | 0.152918 0.319491 | 0.117318 0.129113 0.324642 ] cmatrix=[4.58927 | -1.48103 4.83537 | -0.564473 -0.941462 4.36339 ]
new Linecode.1p_oh_code3 nphases=1 units=mi rmatrix=[0.405140 ] xmatrix=[0.410718 ] cmatrix=[3.65371 ]
new Linecode.1p_oh_code9 nphases=1 units=mi rmatrix=[0.405140 ] xmatrix=[0.410718 ] cmatrix=[3.65371 ]
new Linecode.1p_oh_code8 nphases=1 units=mi rmatrix=[0.405140 ] xmatrix=[0.410718 ] cmatrix=[3.65371 ]
new Linecode.2p_oh_code2 nphases=2 units=mi rmatrix=[0.139476 | 0.0467868 0.140665 ] xmatrix=[0.328574 | 0.117318 0.324642 ] cmatrix=[4.13564 | -0.852854 4.18011 ]


new Xfmrcode.cimxfmrcode_xfmr_611_c_2 windings=3 phases=1 xhl=2.040000 xht=2.040000 xlt=0.136000 %imag=0.000 %noloadloss=0.000
~ wdg=1 conn=w kv=2.400 kva=10000.0 %r=0.003000
~ wdg=2 conn=w kv=0.120 kva=1000.0 %r=0.000600
~ wdg=3 conn=w kv=0.120 kva=1000.0 %r=0.000600
new Xfmrcode.cimxfmrcode_xfmr_684_c_2 windings=3 phases=1 xhl=2.040000 xht=2.040000 xlt=0.136000 %imag=0.000 %noloadloss=0.000
~ wdg=1 conn=w kv=2.400 kva=10000.0 %r=0.003000
~ wdg=2 conn=w kv=0.120 kva=1000.0 %r=0.000600
~ wdg=3 conn=w kv=0.120 kva=1000.0 %r=0.000600
new Xfmrcode.cimxfmrcode_xfmr_611_c_1 windings=3 phases=1 xhl=2.040000 xht=2.040000 xlt=0.136000 %imag=0.000 %noloadloss=0.000
~ wdg=1 conn=w kv=2.400 kva=10000.0 %r=0.003000
~ wdg=2 conn=w kv=0.120 kva=1000.0 %r=0.000600
~ wdg=3 conn=w kv=0.120 kva=1000.0 %r=0.000600
new Xfmrcode.cimxfmrcode_xfmr_684_c_1 windings=3 phases=1 xhl=2.040000 xht=2.040000 xlt=0.136000 %imag=0.000 %noloadloss=0.000
~ wdg=1 conn=w kv=2.400 kva=10000.0 %r=0.003000
~ wdg=2 conn=w kv=0.120 kva=1000.0 %r=0.000600
~ wdg=3 conn=w kv=0.120 kva=1000.0 %r=0.000600
new Xfmrcode.cimxfmrcode_xfmr_611_c_4 windings=3 phases=1 xhl=2.040000 xht=2.040000 xlt=0.136000 %imag=0.000 %noloadloss=0.000
~ wdg=1 conn=w kv=2.400 kva=10000.0 %r=0.003000
~ wdg=2 conn=w kv=0.120 kva=1000.0 %r=0.000600
~ wdg=3 conn=w kv=0.120 kva=1000.0 %r=0.000600
new Xfmrcode.cimxfmrcode_xfmr_671_a_5 windings=3 phases=1 xhl=2.040000 xht=2.040000 xlt=0.136000 %imag=0.000 %noloadloss=0.000
~ wdg=1 conn=w kv=2.400 kva=10000.0 %r=0.003000
~ wdg=2 conn=w kv=0.120 kva=1000.0 %r=0.000600
~ wdg=3 conn=w kv=0.120 kva=1000.0 %r=0.000600
new Xfmrcode.cimxfmrcode_xfmr_684_c_4 windings=3 phases=1 xhl=2.040000 xht=2.040000 xlt=0.136000 %imag=0.000 %noloadloss=0.000
~ wdg=1 conn=w kv=2.400 kva=10000.0 %r=0.003000
~ wdg=2 conn=w kv=0.120 kva=1000.0 %r=0.000600
~ wdg=3 conn=w kv=0.120 kva=1000.0 %r=0.000600
new Xfmrcode.cimxfmrcode_xfmr_611_c_3 windings=3 phases=1 xhl=2.040000 xht=2.040000 xlt=0.136000 %imag=0.000 %noloadloss=0.000
~ wdg=1 conn=w kv=2.400 kva=10000.0 %r=0.003000
~ wdg=2 conn=w kv=0.120 kva=1000.0 %r=0.000600
~ wdg=3 conn=w kv=0.120 kva=1000.0 %r=0.000600
new Xfmrcode.cimxfmrcode_xfmr_684_c_3 windings=3 phases=1 xhl=2.040000 xht=2.040000 xlt=0.136000 %imag=0.000 %noloadloss=0.000
~ wdg=1 conn=w kv=2.400 kva=10000.0 %r=0.003000
~ wdg=2 conn=w kv=0.120 kva=1000.0 %r=0.000600
~ wdg=3 conn=w kv=0.120 kva=1000.0 %r=0.000600
new Xfmrcode.cimxfmrcode_xfmr_633_b_4 windings=3 phases=1 xhl=2.040000 xht=2.040000 xlt=0.136000 %imag=0.000 %noloadloss=0.000
~ wdg=1 conn=w kv=2.400 kva=10000.0 %r=0.003000
~ wdg=2 conn=w kv=0.120 kva=1000.0 %r=0.000600
~ wdg=3 conn=w kv=0.120 kva=1000.0 %r=0.000600
new Xfmrcode.cimxfmrcode_xfmr_671_a_3 windings=3 phases=1 xhl=2.040000 xht=2.040000 xlt=0.136000 %imag=0.000 %noloadloss=0.000
~ wdg=1 conn=w kv=2.400 kva=10000.0 %r=0.003000
~ wdg=2 conn=w kv=0.120 kva=1000.0 %r=0.000600
~ wdg=3 conn=w kv=0.120 kva=1000.0 %r=0.000600
new Xfmrcode.cimxfmrcode_xfmr_611_c_5 windings=3 phases=1 xhl=2.040000 xht=2.040000 xlt=0.136000 %imag=0.000 %noloadloss=0.000
~ wdg=1 conn=w kv=2.400 kva=10000.0 %r=0.003000
~ wdg=2 conn=w kv=0.120 kva=1000.0 %r=0.000600
~ wdg=3 conn=w kv=0.120 kva=1000.0 %r=0.000600
new Xfmrcode.cimxfmrcode_xfmr_633_b_5 windings=3 phases=1 xhl=2.040000 xht=2.040000 xlt=0.136000 %imag=0.000 %noloadloss=0.000
~ wdg=1 conn=w kv=2.400 kva=10000.0 %r=0.003000
~ wdg=2 conn=w kv=0.120 kva=1000.0 %r=0.000600
~ wdg=3 conn=w kv=0.120 kva=1000.0 %r=0.000600
new Xfmrcode.cimxfmrcode_xfmr_671_a_4 windings=3 phases=1 xhl=2.040000 xht=2.040000 xlt=0.136000 %imag=0.000 %noloadloss=0.000
~ wdg=1 conn=w kv=2.400 kva=10000.0 %r=0.003000
~ wdg=2 conn=w kv=0.120 kva=1000.0 %r=0.000600
~ wdg=3 conn=w kv=0.120 kva=1000.0 %r=0.000600
new Xfmrcode.cimxfmrcode_xfmr_633_b_2 windings=3 phases=1 xhl=2.040000 xht=2.040000 xlt=0.136000 %imag=0.000 %noloadloss=0.000
~ wdg=1 conn=w kv=2.400 kva=10000.0 %r=0.003000
~ wdg=2 conn=w kv=0.120 kva=1000.0 %r=0.000600
~ wdg=3 conn=w kv=0.120 kva=1000.0 %r=0.000600
new Xfmrcode.cimxfmrcode_xfmr_671_a_1 windings=3 phases=1 xhl=2.040000 xht=2.040000 xlt=0.136000 %imag=0.000 %noloadloss=0.000
~ wdg=1 conn=w kv=2.400 kva=10000.0 %r=0.003000
~ wdg=2 conn=w kv=0.120 kva=1000.0 %r=0.000600
~ wdg=3 conn=w kv=0.120 kva=1000.0 %r=0.000600
new Xfmrcode.cimxfmrcode_xfmr_633_b_3 windings=3 phases=1 xhl=2.040000 xht=2.040000 xlt=0.136000 %imag=0.000 %noloadloss=0.000
~ wdg=1 conn=w kv=2.400 kva=10000.0 %r=0.003000
~ wdg=2 conn=w kv=0.120 kva=1000.0 %r=0.000600
~ wdg=3 conn=w kv=0.120 kva=1000.0 %r=0.000600
new Xfmrcode.cimxfmrcode_xfmr_671_a_2 windings=3 phases=1 xhl=2.040000 xht=2.040000 xlt=0.136000 %imag=0.000 %noloadloss=0.000
~ wdg=1 conn=w kv=2.400 kva=10000.0 %r=0.003000
~ wdg=2 conn=w kv=0.120 kva=1000.0 %r=0.000600
~ wdg=3 conn=w kv=0.120 kva=1000.0 %r=0.000600
new Xfmrcode.cimxfmrcode_xfmr_633_b_1 windings=3 phases=1 xhl=2.040000 xht=2.040000 xlt=0.136000 %imag=0.000 %noloadloss=0.000
~ wdg=1 conn=w kv=2.400 kva=10000.0 %r=0.003000
~ wdg=2 conn=w kv=0.120 kva=1000.0 %r=0.000600
~ wdg=3 conn=w kv=0.120 kva=1000.0 %r=0.000600
new Xfmrcode.cimxfmrcode_xfmr_684_c_5 windings=3 phases=1 xhl=2.040000 xht=2.040000 xlt=0.136000 %imag=0.000 %noloadloss=0.000
~ wdg=1 conn=w kv=2.400 kva=10000.0 %r=0.003000
~ wdg=2 conn=w kv=0.120 kva=1000.0 %r=0.000600
~ wdg=3 conn=w kv=0.120 kva=1000.0 %r=0.000600
new Xfmrcode.cimxfmrcode_xfmr_645_b_5 windings=3 phases=1 xhl=2.040000 xht=2.040000 xlt=0.136000 %imag=0.000 %noloadloss=0.000
~ wdg=1 conn=w kv=2.400 kva=10000.0 %r=0.003000
~ wdg=2 conn=w kv=0.120 kva=1000.0 %r=0.000600
~ wdg=3 conn=w kv=0.120 kva=1000.0 %r=0.000600
new Xfmrcode.cimxfmrcode_xfmr_645_b_4 windings=3 phases=1 xhl=2.040000 xht=2.040000 xlt=0.136000 %imag=0.000 %noloadloss=0.000
~ wdg=1 conn=w kv=2.400 kva=10000.0 %r=0.003000
~ wdg=2 conn=w kv=0.120 kva=1000.0 %r=0.000600
~ wdg=3 conn=w kv=0.120 kva=1000.0 %r=0.000600
new Xfmrcode.cimxfmrcode_xfmr_645_b_3 windings=3 phases=1 xhl=2.040000 xht=2.040000 xlt=0.136000 %imag=0.000 %noloadloss=0.000
~ wdg=1 conn=w kv=2.400 kva=10000.0 %r=0.003000
~ wdg=2 conn=w kv=0.120 kva=1000.0 %r=0.000600
~ wdg=3 conn=w kv=0.120 kva=1000.0 %r=0.000600
new Xfmrcode.cimxfmrcode_xfmr_645_b_2 windings=3 phases=1 xhl=2.040000 xht=2.040000 xlt=0.136000 %imag=0.000 %noloadloss=0.000
~ wdg=1 conn=w kv=2.400 kva=10000.0 %r=0.003000
~ wdg=2 conn=w kv=0.120 kva=1000.0 %r=0.000600
~ wdg=3 conn=w kv=0.120 kva=1000.0 %r=0.000600
new Xfmrcode.cimxfmrcode_xfmr_645_b_1 windings=3 phases=1 xhl=2.040000 xht=2.040000 xlt=0.136000 %imag=0.000 %noloadloss=0.000
~ wdg=1 conn=w kv=2.400 kva=10000.0 %r=0.003000
~ wdg=2 conn=w kv=0.120 kva=1000.0 %r=0.000600
~ wdg=3 conn=w kv=0.120 kva=1000.0 %r=0.000600
new Xfmrcode.cimxfmrcode_xfmr_692_b_5 windings=3 phases=1 xhl=2.040000 xht=2.040000 xlt=0.136000 %imag=0.000 %noloadloss=0.000
~ wdg=1 conn=w kv=2.400 kva=10000.0 %r=0.003000
~ wdg=2 conn=w kv=0.120 kva=1000.0 %r=0.000600
~ wdg=3 conn=w kv=0.120 kva=1000.0 %r=0.000600
new Xfmrcode.cimxfmrcode_xfmr_692_b_2 windings=3 phases=1 xhl=2.040000 xht=2.040000 xlt=0.136000 %imag=0.000 %noloadloss=0.000
~ wdg=1 conn=w kv=2.400 kva=10000.0 %r=0.003000
~ wdg=2 conn=w kv=0.120 kva=1000.0 %r=0.000600
~ wdg=3 conn=w kv=0.120 kva=1000.0 %r=0.000600
new Xfmrcode.cimxfmrcode_xfmr_692_b_1 windings=3 phases=1 xhl=2.040000 xht=2.040000 xlt=0.136000 %imag=0.000 %noloadloss=0.000
~ wdg=1 conn=w kv=2.400 kva=10000.0 %r=0.003000
~ wdg=2 conn=w kv=0.120 kva=1000.0 %r=0.000600
~ wdg=3 conn=w kv=0.120 kva=1000.0 %r=0.000600
new Xfmrcode.cimxfmrcode_xfmr_692_b_4 windings=3 phases=1 xhl=2.040000 xht=2.040000 xlt=0.136000 %imag=0.000 %noloadloss=0.000
~ wdg=1 conn=w kv=2.400 kva=10000.0 %r=0.003000
~ wdg=2 conn=w kv=0.120 kva=1000.0 %r=0.000600
~ wdg=3 conn=w kv=0.120 kva=1000.0 %r=0.000600
new Xfmrcode.cimxfmrcode_xfmr_692_b_3 windings=3 phases=1 xhl=2.040000 xht=2.040000 xlt=0.136000 %imag=0.000 %noloadloss=0.000
~ wdg=1 conn=w kv=2.400 kva=10000.0 %r=0.003000
~ wdg=2 conn=w kv=0.120 kva=1000.0 %r=0.000600
~ wdg=3 conn=w kv=0.120 kva=1000.0 %r=0.000600
new Xfmrcode.cimxfmrcode_xfmr_652_a_1 windings=3 phases=1 xhl=2.040000 xht=2.040000 xlt=0.136000 %imag=0.000 %noloadloss=0.000
~ wdg=1 conn=w kv=2.400 kva=10000.0 %r=0.003000
~ wdg=2 conn=w kv=0.120 kva=1000.0 %r=0.000600
~ wdg=3 conn=w kv=0.120 kva=1000.0 %r=0.000600
new Xfmrcode.cimxfmrcode_xfmr_652_a_4 windings=3 phases=1 xhl=2.040000 xht=2.040000 xlt=0.136000 %imag=0.000 %noloadloss=0.000
~ wdg=1 conn=w kv=2.400 kva=10000.0 %r=0.003000
~ wdg=2 conn=w kv=0.120 kva=1000.0 %r=0.000600
~ wdg=3 conn=w kv=0.120 kva=1000.0 %r=0.000600
new Xfmrcode.cimxfmrcode_xfmr_652_a_5 windings=3 phases=1 xhl=2.040000 xht=2.040000 xlt=0.136000 %imag=0.000 %noloadloss=0.000
~ wdg=1 conn=w kv=2.400 kva=10000.0 %r=0.003000
~ wdg=2 conn=w kv=0.120 kva=1000.0 %r=0.000600
~ wdg=3 conn=w kv=0.120 kva=1000.0 %r=0.000600
new Xfmrcode.cimxfmrcode_xfmr_652_a_2 windings=3 phases=1 xhl=2.040000 xht=2.040000 xlt=0.136000 %imag=0.000 %noloadloss=0.000
~ wdg=1 conn=w kv=2.400 kva=10000.0 %r=0.003000
~ wdg=2 conn=w kv=0.120 kva=1000.0 %r=0.000600
~ wdg=3 conn=w kv=0.120 kva=1000.0 %r=0.000600
new Xfmrcode.cimxfmrcode_xfmr_652_a_3 windings=3 phases=1 xhl=2.040000 xht=2.040000 xlt=0.136000 %imag=0.000 %noloadloss=0.000
~ wdg=1 conn=w kv=2.400 kva=10000.0 %r=0.003000
~ wdg=2 conn=w kv=0.120 kva=1000.0 %r=0.000600
~ wdg=3 conn=w kv=0.120 kva=1000.0 %r=0.000600
new Xfmrcode.fdrxfmr windings=2 phases=3 xhl=2.000000 %imag=1.100 %noloadloss=0.000
~ wdg=1 conn=w kv=4.160 kva=500.0 %r=0.550000
~ wdg=2 conn=w kv=0.480 kva=500.0 %r=0.550000
new Xfmrcode.cimxfmrcode_xfmr_671_b_4 windings=3 phases=1 xhl=2.040000 xht=2.040000 xlt=0.136000 %imag=0.000 %noloadloss=0.000
~ wdg=1 conn=w kv=2.400 kva=10000.0 %r=0.003000
~ wdg=2 conn=w kv=0.120 kva=1000.0 %r=0.000600
~ wdg=3 conn=w kv=0.120 kva=1000.0 %r=0.000600
new Xfmrcode.cimxfmrcode_xfmr_671_b_5 windings=3 phases=1 xhl=2.040000 xht=2.040000 xlt=0.136000 %imag=0.000 %noloadloss=0.000
~ wdg=1 conn=w kv=2.400 kva=10000.0 %r=0.003000
~ wdg=2 conn=w kv=0.120 kva=1000.0 %r=0.000600
~ wdg=3 conn=w kv=0.120 kva=1000.0 %r=0.000600
new Xfmrcode.cimxfmrcode_xfmr_633_a_5 windings=3 phases=1 xhl=2.040000 xht=2.040000 xlt=0.136000 %imag=0.000 %noloadloss=0.000
~ wdg=1 conn=w kv=2.400 kva=10000.0 %r=0.003000
~ wdg=2 conn=w kv=0.120 kva=1000.0 %r=0.000600
~ wdg=3 conn=w kv=0.120 kva=1000.0 %r=0.000600
new Xfmrcode.cimxfmrcode_xfmr_671_b_2 windings=3 phases=1 xhl=2.040000 xht=2.040000 xlt=0.136000 %imag=0.000 %noloadloss=0.000
~ wdg=1 conn=w kv=2.400 kva=10000.0 %r=0.003000
~ wdg=2 conn=w kv=0.120 kva=1000.0 %r=0.000600
~ wdg=3 conn=w kv=0.120 kva=1000.0 %r=0.000600
new Xfmrcode.cimxfmrcode_xfmr_671_b_3 windings=3 phases=1 xhl=2.040000 xht=2.040000 xlt=0.136000 %imag=0.000 %noloadloss=0.000
~ wdg=1 conn=w kv=2.400 kva=10000.0 %r=0.003000
~ wdg=2 conn=w kv=0.120 kva=1000.0 %r=0.000600
~ wdg=3 conn=w kv=0.120 kva=1000.0 %r=0.000600
new Xfmrcode.cimxfmrcode_xfmr_633_a_3 windings=3 phases=1 xhl=2.040000 xht=2.040000 xlt=0.136000 %imag=0.000 %noloadloss=0.000
~ wdg=1 conn=w kv=2.400 kva=10000.0 %r=0.003000
~ wdg=2 conn=w kv=0.120 kva=1000.0 %r=0.000600
~ wdg=3 conn=w kv=0.120 kva=1000.0 %r=0.000600
new Xfmrcode.cimxfmrcode_xfmr_632_c_1 windings=3 phases=1 xhl=2.040000 xht=2.040000 xlt=0.136000 %imag=0.000 %noloadloss=0.000
~ wdg=1 conn=w kv=2.400 kva=10000.0 %r=0.003000
~ wdg=2 conn=w kv=0.120 kva=1000.0 %r=0.000600
~ wdg=3 conn=w kv=0.120 kva=1000.0 %r=0.000600
new Xfmrcode.cimxfmrcode_xfmr_633_a_4 windings=3 phases=1 xhl=2.040000 xht=2.040000 xlt=0.136000 %imag=0.000 %noloadloss=0.000
~ wdg=1 conn=w kv=2.400 kva=10000.0 %r=0.003000
~ wdg=2 conn=w kv=0.120 kva=1000.0 %r=0.000600
~ wdg=3 conn=w kv=0.120 kva=1000.0 %r=0.000600
new Xfmrcode.cimxfmrcode_xfmr_671_b_1 windings=3 phases=1 xhl=2.040000 xht=2.040000 xlt=0.136000 %imag=0.000 %noloadloss=0.000
~ wdg=1 conn=w kv=2.400 kva=10000.0 %r=0.003000
~ wdg=2 conn=w kv=0.120 kva=1000.0 %r=0.000600
~ wdg=3 conn=w kv=0.120 kva=1000.0 %r=0.000600
new Xfmrcode.cimxfmrcode_xfmr_632_c_2 windings=3 phases=1 xhl=2.040000 xht=2.040000 xlt=0.136000 %imag=0.000 %noloadloss=0.000
~ wdg=1 conn=w kv=2.400 kva=10000.0 %r=0.003000
~ wdg=2 conn=w kv=0.120 kva=1000.0 %r=0.000600
~ wdg=3 conn=w kv=0.120 kva=1000.0 %r=0.000600
new Xfmrcode.cimxfmrcode_xfmr_633_a_1 windings=3 phases=1 xhl=2.040000 xht=2.040000 xlt=0.136000 %imag=0.000 %noloadloss=0.000
~ wdg=1 conn=w kv=2.400 kva=10000.0 %r=0.003000
~ wdg=2 conn=w kv=0.120 kva=1000.0 %r=0.000600
~ wdg=3 conn=w kv=0.120 kva=1000.0 %r=0.000600
new Xfmrcode.cimxfmrcode_xfmr_632_c_3 windings=3 phases=1 xhl=2.040000 xht=2.040000 xlt=0.136000 %imag=0.000 %noloadloss=0.000
~ wdg=1 conn=w kv=2.400 kva=10000.0 %r=0.003000
~ wdg=2 conn=w kv=0.120 kva=1000.0 %r=0.000600
~ wdg=3 conn=w kv=0.120 kva=1000.0 %r=0.000600
new Xfmrcode.cimxfmrcode_xfmr_633_a_2 windings=3 phases=1 xhl=2.040000 xht=2.040000 xlt=0.136000 %imag=0.000 %noloadloss=0.000
~ wdg=1 conn=w kv=2.400 kva=10000.0 %r=0.003000
~ wdg=2 conn=w kv=0.120 kva=1000.0 %r=0.000600
~ wdg=3 conn=w kv=0.120 kva=1000.0 %r=0.000600
new Xfmrcode.cimxfmrcode_xfmr_632_c_4 windings=3 phases=1 xhl=2.040000 xht=2.040000 xlt=0.136000 %imag=0.000 %noloadloss=0.000
~ wdg=1 conn=w kv=2.400 kva=10000.0 %r=0.003000
~ wdg=2 conn=w kv=0.120 kva=1000.0 %r=0.000600
~ wdg=3 conn=w kv=0.120 kva=1000.0 %r=0.000600
new Xfmrcode.cimxfmrcode_xfmr_632_c_5 windings=3 phases=1 xhl=2.040000 xht=2.040000 xlt=0.136000 %imag=0.000 %noloadloss=0.000
~ wdg=1 conn=w kv=2.400 kva=10000.0 %r=0.003000
~ wdg=2 conn=w kv=0.120 kva=1000.0 %r=0.000600
~ wdg=3 conn=w kv=0.120 kva=1000.0 %r=0.000600
new Xfmrcode.cimxfmrcode_xfmr_680_a_3 windings=3 phases=1 xhl=2.040000 xht=2.040000 xlt=0.136000 %imag=0.000 %noloadloss=0.000
~ wdg=1 conn=w kv=2.400 kva=10000.0 %r=0.003000
~ wdg=2 conn=w kv=0.120 kva=1000.0 %r=0.000600
~ wdg=3 conn=w kv=0.120 kva=1000.0 %r=0.000600
new Xfmrcode.cimxfmrcode_xfmr_680_a_4 windings=3 phases=1 xhl=2.040000 xht=2.040000 xlt=0.136000 %imag=0.000 %noloadloss=0.000
~ wdg=1 conn=w kv=2.400 kva=10000.0 %r=0.003000
~ wdg=2 conn=w kv=0.120 kva=1000.0 %r=0.000600
~ wdg=3 conn=w kv=0.120 kva=1000.0 %r=0.000600
new Xfmrcode.cimxfmrcode_xfmr_680_a_5 windings=3 phases=1 xhl=2.040000 xht=2.040000 xlt=0.136000 %imag=0.000 %noloadloss=0.000
~ wdg=1 conn=w kv=2.400 kva=10000.0 %r=0.003000
~ wdg=2 conn=w kv=0.120 kva=1000.0 %r=0.000600
~ wdg=3 conn=w kv=0.120 kva=1000.0 %r=0.000600
new Xfmrcode.cimxfmrcode_xfmr_645_c_5 windings=3 phases=1 xhl=2.040000 xht=2.040000 xlt=0.136000 %imag=0.000 %noloadloss=0.000
~ wdg=1 conn=w kv=2.400 kva=10000.0 %r=0.003000
~ wdg=2 conn=w kv=0.120 kva=1000.0 %r=0.000600
~ wdg=3 conn=w kv=0.120 kva=1000.0 %r=0.000600
new Xfmrcode.cimxfmrcode_xfmr_680_a_1 windings=3 phases=1 xhl=2.040000 xht=2.040000 xlt=0.136000 %imag=0.000 %noloadloss=0.000
~ wdg=1 conn=w kv=2.400 kva=10000.0 %r=0.003000
~ wdg=2 conn=w kv=0.120 kva=1000.0 %r=0.000600
~ wdg=3 conn=w kv=0.120 kva=1000.0 %r=0.000600
new Xfmrcode.cimxfmrcode_xfmr_645_c_4 windings=3 phases=1 xhl=2.040000 xht=2.040000 xlt=0.136000 %imag=0.000 %noloadloss=0.000
~ wdg=1 conn=w kv=2.400 kva=10000.0 %r=0.003000
~ wdg=2 conn=w kv=0.120 kva=1000.0 %r=0.000600
~ wdg=3 conn=w kv=0.120 kva=1000.0 %r=0.000600
new Xfmrcode.cimxfmrcode_xfmr_680_a_2 windings=3 phases=1 xhl=2.040000 xht=2.040000 xlt=0.136000 %imag=0.000 %noloadloss=0.000
~ wdg=1 conn=w kv=2.400 kva=10000.0 %r=0.003000
~ wdg=2 conn=w kv=0.120 kva=1000.0 %r=0.000600
~ wdg=3 conn=w kv=0.120 kva=1000.0 %r=0.000600
new Xfmrcode.cimxfmrcode_xfmr_645_c_3 windings=3 phases=1 xhl=2.040000 xht=2.040000 xlt=0.136000 %imag=0.000 %noloadloss=0.000
~ wdg=1 conn=w kv=2.400 kva=10000.0 %r=0.003000
~ wdg=2 conn=w kv=0.120 kva=1000.0 %r=0.000600
~ wdg=3 conn=w kv=0.120 kva=1000.0 %r=0.000600
new Xfmrcode.cimxfmrcode_xfmr_675_c_5 windings=3 phases=1 xhl=2.040000 xht=2.040000 xlt=0.136000 %imag=0.000 %noloadloss=0.000
~ wdg=1 conn=w kv=2.400 kva=10000.0 %r=0.003000
~ wdg=2 conn=w kv=0.120 kva=1000.0 %r=0.000600
~ wdg=3 conn=w kv=0.120 kva=1000.0 %r=0.000600
new Xfmrcode.cimxfmrcode_xfmr_645_c_2 windings=3 phases=1 xhl=2.040000 xht=2.040000 xlt=0.136000 %imag=0.000 %noloadloss=0.000
~ wdg=1 conn=w kv=2.400 kva=10000.0 %r=0.003000
~ wdg=2 conn=w kv=0.120 kva=1000.0 %r=0.000600
~ wdg=3 conn=w kv=0.120 kva=1000.0 %r=0.000600
new Xfmrcode.cimxfmrcode_xfmr_645_c_1 windings=3 phases=1 xhl=2.040000 xht=2.040000 xlt=0.136000 %imag=0.000 %noloadloss=0.000
~ wdg=1 conn=w kv=2.400 kva=10000.0 %r=0.003000
~ wdg=2 conn=w kv=0.120 kva=1000.0 %r=0.000600
~ wdg=3 conn=w kv=0.120 kva=1000.0 %r=0.000600
new Xfmrcode.cimxfmrcode_xfmr_675_c_3 windings=3 phases=1 xhl=2.040000 xht=2.040000 xlt=0.136000 %imag=0.000 %noloadloss=0.000
~ wdg=1 conn=w kv=2.400 kva=10000.0 %r=0.003000
~ wdg=2 conn=w kv=0.120 kva=1000.0 %r=0.000600
~ wdg=3 conn=w kv=0.120 kva=1000.0 %r=0.000600
new Xfmrcode.cimxfmrcode_xfmr_675_c_4 windings=3 phases=1 xhl=2.040000 xht=2.040000 xlt=0.136000 %imag=0.000 %noloadloss=0.000
~ wdg=1 conn=w kv=2.400 kva=10000.0 %r=0.003000
~ wdg=2 conn=w kv=0.120 kva=1000.0 %r=0.000600
~ wdg=3 conn=w kv=0.120 kva=1000.0 %r=0.000600
new Xfmrcode.cimxfmrcode_xfmr_675_c_1 windings=3 phases=1 xhl=2.040000 xht=2.040000 xlt=0.136000 %imag=0.000 %noloadloss=0.000
~ wdg=1 conn=w kv=2.400 kva=10000.0 %r=0.003000
~ wdg=2 conn=w kv=0.120 kva=1000.0 %r=0.000600
~ wdg=3 conn=w kv=0.120 kva=1000.0 %r=0.000600
new Xfmrcode.cimxfmrcode_xfmr_692_c_5 windings=3 phases=1 xhl=2.040000 xht=2.040000 xlt=0.136000 %imag=0.000 %noloadloss=0.000
~ wdg=1 conn=w kv=2.400 kva=10000.0 %r=0.003000
~ wdg=2 conn=w kv=0.120 kva=1000.0 %r=0.000600
~ wdg=3 conn=w kv=0.120 kva=1000.0 %r=0.000600
new Xfmrcode.cimxfmrcode_xfmr_675_c_2 windings=3 phases=1 xhl=2.040000 xht=2.040000 xlt=0.136000 %imag=0.000 %noloadloss=0.000
~ wdg=1 conn=w kv=2.400 kva=10000.0 %r=0.003000
~ wdg=2 conn=w kv=0.120 kva=1000.0 %r=0.000600
~ wdg=3 conn=w kv=0.120 kva=1000.0 %r=0.000600
new Xfmrcode.cimxfmrcode_xfmr_692_c_4 windings=3 phases=1 xhl=2.040000 xht=2.040000 xlt=0.136000 %imag=0.000 %noloadloss=0.000
~ wdg=1 conn=w kv=2.400 kva=10000.0 %r=0.003000
~ wdg=2 conn=w kv=0.120 kva=1000.0 %r=0.000600
~ wdg=3 conn=w kv=0.120 kva=1000.0 %r=0.000600
new Xfmrcode.cimxfmrcode_xfmr_692_c_1 windings=3 phases=1 xhl=2.040000 xht=2.040000 xlt=0.136000 %imag=0.000 %noloadloss=0.000
~ wdg=1 conn=w kv=2.400 kva=10000.0 %r=0.003000
~ wdg=2 conn=w kv=0.120 kva=1000.0 %r=0.000600
~ wdg=3 conn=w kv=0.120 kva=1000.0 %r=0.000600
new Xfmrcode.cimxfmrcode_xfmr_692_c_3 windings=3 phases=1 xhl=2.040000 xht=2.040000 xlt=0.136000 %imag=0.000 %noloadloss=0.000
~ wdg=1 conn=w kv=2.400 kva=10000.0 %r=0.003000
~ wdg=2 conn=w kv=0.120 kva=1000.0 %r=0.000600
~ wdg=3 conn=w kv=0.120 kva=1000.0 %r=0.000600
new Xfmrcode.cimxfmrcode_xfmr_692_c_2 windings=3 phases=1 xhl=2.040000 xht=2.040000 xlt=0.136000 %imag=0.000 %noloadloss=0.000
~ wdg=1 conn=w kv=2.400 kva=10000.0 %r=0.003000
~ wdg=2 conn=w kv=0.120 kva=1000.0 %r=0.000600
~ wdg=3 conn=w kv=0.120 kva=1000.0 %r=0.000600
new Xfmrcode.cimxfmrcode_xfmr_671_c_5 windings=3 phases=1 xhl=2.040000 xht=2.040000 xlt=0.136000 %imag=0.000 %noloadloss=0.000
~ wdg=1 conn=w kv=2.400 kva=10000.0 %r=0.003000
~ wdg=2 conn=w kv=0.120 kva=1000.0 %r=0.000600
~ wdg=3 conn=w kv=0.120 kva=1000.0 %r=0.000600
new Xfmrcode.cimxfmrcode_xfmr_684_a_4 windings=3 phases=1 xhl=2.040000 xht=2.040000 xlt=0.136000 %imag=0.000 %noloadloss=0.000
~ wdg=1 conn=w kv=2.400 kva=10000.0 %r=0.003000
~ wdg=2 conn=w kv=0.120 kva=1000.0 %r=0.000600
~ wdg=3 conn=w kv=0.120 kva=1000.0 %r=0.000600
new Xfmrcode.cimxfmrcode_xfmr_684_a_3 windings=3 phases=1 xhl=2.040000 xht=2.040000 xlt=0.136000 %imag=0.000 %noloadloss=0.000
~ wdg=1 conn=w kv=2.400 kva=10000.0 %r=0.003000
~ wdg=2 conn=w kv=0.120 kva=1000.0 %r=0.000600
~ wdg=3 conn=w kv=0.120 kva=1000.0 %r=0.000600
new Xfmrcode.cimxfmrcode_xfmr_671_c_3 windings=3 phases=1 xhl=2.040000 xht=2.040000 xlt=0.136000 %imag=0.000 %noloadloss=0.000
~ wdg=1 conn=w kv=2.400 kva=10000.0 %r=0.003000
~ wdg=2 conn=w kv=0.120 kva=1000.0 %r=0.000600
~ wdg=3 conn=w kv=0.120 kva=1000.0 %r=0.000600
new Xfmrcode.cimxfmrcode_xfmr_671_c_4 windings=3 phases=1 xhl=2.040000 xht=2.040000 xlt=0.136000 %imag=0.000 %noloadloss=0.000
~ wdg=1 conn=w kv=2.400 kva=10000.0 %r=0.003000
~ wdg=2 conn=w kv=0.120 kva=1000.0 %r=0.000600
~ wdg=3 conn=w kv=0.120 kva=1000.0 %r=0.000600
new Xfmrcode.cimxfmrcode_xfmr_684_a_5 windings=3 phases=1 xhl=2.040000 xht=2.040000 xlt=0.136000 %imag=0.000 %noloadloss=0.000
~ wdg=1 conn=w kv=2.400 kva=10000.0 %r=0.003000
~ wdg=2 conn=w kv=0.120 kva=1000.0 %r=0.000600
~ wdg=3 conn=w kv=0.120 kva=1000.0 %r=0.000600
new Xfmrcode.cimxfmrcode_xfmr_671_c_1 windings=3 phases=1 xhl=2.040000 xht=2.040000 xlt=0.136000 %imag=0.000 %noloadloss=0.000
~ wdg=1 conn=w kv=2.400 kva=10000.0 %r=0.003000
~ wdg=2 conn=w kv=0.120 kva=1000.0 %r=0.000600
~ wdg=3 conn=w kv=0.120 kva=1000.0 %r=0.000600
new Xfmrcode.cimxfmrcode_xfmr_671_c_2 windings=3 phases=1 xhl=2.040000 xht=2.040000 xlt=0.136000 %imag=0.000 %noloadloss=0.000
~ wdg=1 conn=w kv=2.400 kva=10000.0 %r=0.003000
~ wdg=2 conn=w kv=0.120 kva=1000.0 %r=0.000600
~ wdg=3 conn=w kv=0.120 kva=1000.0 %r=0.000600
new Xfmrcode.cimxfmrcode_xfmr_632_b_1 windings=3 phases=1 xhl=2.040000 xht=2.040000 xlt=0.136000 %imag=0.000 %noloadloss=0.000
~ wdg=1 conn=w kv=2.400 kva=10000.0 %r=0.003000
~ wdg=2 conn=w kv=0.120 kva=1000.0 %r=0.000600
~ wdg=3 conn=w kv=0.120 kva=1000.0 %r=0.000600
new Xfmrcode.cimxfmrcode_xfmr_684_a_2 windings=3 phases=1 xhl=2.040000 xht=2.040000 xlt=0.136000 %imag=0.000 %noloadloss=0.000
~ wdg=1 conn=w kv=2.400 kva=10000.0 %r=0.003000
~ wdg=2 conn=w kv=0.120 kva=1000.0 %r=0.000600
~ wdg=3 conn=w kv=0.120 kva=1000.0 %r=0.000600
new Xfmrcode.cimxfmrcode_xfmr_632_b_2 windings=3 phases=1 xhl=2.040000 xht=2.040000 xlt=0.136000 %imag=0.000 %noloadloss=0.000
~ wdg=1 conn=w kv=2.400 kva=10000.0 %r=0.003000
~ wdg=2 conn=w kv=0.120 kva=1000.0 %r=0.000600
~ wdg=3 conn=w kv=0.120 kva=1000.0 %r=0.000600
new Xfmrcode.cimxfmrcode_xfmr_684_a_1 windings=3 phases=1 xhl=2.040000 xht=2.040000 xlt=0.136000 %imag=0.000 %noloadloss=0.000
~ wdg=1 conn=w kv=2.400 kva=10000.0 %r=0.003000
~ wdg=2 conn=w kv=0.120 kva=1000.0 %r=0.000600
~ wdg=3 conn=w kv=0.120 kva=1000.0 %r=0.000600
new Xfmrcode.cimxfmrcode_xfmr_632_b_3 windings=3 phases=1 xhl=2.040000 xht=2.040000 xlt=0.136000 %imag=0.000 %noloadloss=0.000
~ wdg=1 conn=w kv=2.400 kva=10000.0 %r=0.003000
~ wdg=2 conn=w kv=0.120 kva=1000.0 %r=0.000600
~ wdg=3 conn=w kv=0.120 kva=1000.0 %r=0.000600
new Xfmrcode.cimxfmrcode_xfmr_632_b_4 windings=3 phases=1 xhl=2.040000 xht=2.040000 xlt=0.136000 %imag=0.000 %noloadloss=0.000
~ wdg=1 conn=w kv=2.400 kva=10000.0 %r=0.003000
~ wdg=2 conn=w kv=0.120 kva=1000.0 %r=0.000600
~ wdg=3 conn=w kv=0.120 kva=1000.0 %r=0.000600
new Xfmrcode.cimxfmrcode_xfmr_632_b_5 windings=3 phases=1 xhl=2.040000 xht=2.040000 xlt=0.136000 %imag=0.000 %noloadloss=0.000
~ wdg=1 conn=w kv=2.400 kva=10000.0 %r=0.003000
~ wdg=2 conn=w kv=0.120 kva=1000.0 %r=0.000600
~ wdg=3 conn=w kv=0.120 kva=1000.0 %r=0.000600
new Xfmrcode.cimxfmrcode_xfmr_680_b_2 windings=3 phases=1 xhl=2.040000 xht=2.040000 xlt=0.136000 %imag=0.000 %noloadloss=0.000
~ wdg=1 conn=w kv=2.400 kva=10000.0 %r=0.003000
~ wdg=2 conn=w kv=0.120 kva=1000.0 %r=0.000600
~ wdg=3 conn=w kv=0.120 kva=1000.0 %r=0.000600
new Xfmrcode.cimxfmrcode_xfmr_680_b_3 windings=3 phases=1 xhl=2.040000 xht=2.040000 xlt=0.136000 %imag=0.000 %noloadloss=0.000
~ wdg=1 conn=w kv=2.400 kva=10000.0 %r=0.003000
~ wdg=2 conn=w kv=0.120 kva=1000.0 %r=0.000600
~ wdg=3 conn=w kv=0.120 kva=1000.0 %r=0.000600
new Xfmrcode.cimxfmrcode_xfmr_680_b_4 windings=3 phases=1 xhl=2.040000 xht=2.040000 xlt=0.136000 %imag=0.000 %noloadloss=0.000
~ wdg=1 conn=w kv=2.400 kva=10000.0 %r=0.003000
~ wdg=2 conn=w kv=0.120 kva=1000.0 %r=0.000600
~ wdg=3 conn=w kv=0.120 kva=1000.0 %r=0.000600
new Xfmrcode.cimxfmrcode_xfmr_680_b_5 windings=3 phases=1 xhl=2.040000 xht=2.040000 xlt=0.136000 %imag=0.000 %noloadloss=0.000
~ wdg=1 conn=w kv=2.400 kva=10000.0 %r=0.003000
~ wdg=2 conn=w kv=0.120 kva=1000.0 %r=0.000600
~ wdg=3 conn=w kv=0.120 kva=1000.0 %r=0.000600
new Xfmrcode.regleg windings=2 phases=1 xhl=0.010000 %imag=0.000 %noloadloss=0.000
~ wdg=1 conn=w kv=2.400 kva=1666.0 %r=0.005000
~ wdg=2 conn=w kv=2.400 kva=1666.0 %r=0.005000
new Xfmrcode.cimxfmrcode_xfmr_680_b_1 windings=3 phases=1 xhl=2.040000 xht=2.040000 xlt=0.136000 %imag=0.000 %noloadloss=0.000
~ wdg=1 conn=w kv=2.400 kva=10000.0 %r=0.003000
~ wdg=2 conn=w kv=0.120 kva=1000.0 %r=0.000600
~ wdg=3 conn=w kv=0.120 kva=1000.0 %r=0.000600
new Xfmrcode.cimxfmrcode_xfmr_675_b_4 windings=3 phases=1 xhl=2.040000 xht=2.040000 xlt=0.136000 %imag=0.000 %noloadloss=0.000
~ wdg=1 conn=w kv=2.400 kva=10000.0 %r=0.003000
~ wdg=2 conn=w kv=0.120 kva=1000.0 %r=0.000600
~ wdg=3 conn=w kv=0.120 kva=1000.0 %r=0.000600
new Xfmrcode.cimxfmrcode_xfmr_675_b_5 windings=3 phases=1 xhl=2.040000 xht=2.040000 xlt=0.136000 %imag=0.000 %noloadloss=0.000
~ wdg=1 conn=w kv=2.400 kva=10000.0 %r=0.003000
~ wdg=2 conn=w kv=0.120 kva=1000.0 %r=0.000600
~ wdg=3 conn=w kv=0.120 kva=1000.0 %r=0.000600
new Xfmrcode.cimxfmrcode_xfmr_675_b_2 windings=3 phases=1 xhl=2.040000 xht=2.040000 xlt=0.136000 %imag=0.000 %noloadloss=0.000
~ wdg=1 conn=w kv=2.400 kva=10000.0 %r=0.003000
~ wdg=2 conn=w kv=0.120 kva=1000.0 %r=0.000600
~ wdg=3 conn=w kv=0.120 kva=1000.0 %r=0.000600
new Xfmrcode.cimxfmrcode_xfmr_675_b_3 windings=3 phases=1 xhl=2.040000 xht=2.040000 xlt=0.136000 %imag=0.000 %noloadloss=0.000
~ wdg=1 conn=w kv=2.400 kva=10000.0 %r=0.003000
~ wdg=2 conn=w kv=0.120 kva=1000.0 %r=0.000600
~ wdg=3 conn=w kv=0.120 kva=1000.0 %r=0.000600
new Xfmrcode.cimxfmrcode_xfmr_675_b_1 windings=3 phases=1 xhl=2.040000 xht=2.040000 xlt=0.136000 %imag=0.000 %noloadloss=0.000
~ wdg=1 conn=w kv=2.400 kva=10000.0 %r=0.003000
~ wdg=2 conn=w kv=0.120 kva=1000.0 %r=0.000600
~ wdg=3 conn=w kv=0.120 kva=1000.0 %r=0.000600
new Xfmrcode.cimxfmrcode_xfmr_633_c_5 windings=3 phases=1 xhl=2.040000 xht=2.040000 xlt=0.136000 %imag=0.000 %noloadloss=0.000
~ wdg=1 conn=w kv=2.400 kva=10000.0 %r=0.003000
~ wdg=2 conn=w kv=0.120 kva=1000.0 %r=0.000600
~ wdg=3 conn=w kv=0.120 kva=1000.0 %r=0.000600
new Xfmrcode.cimxfmrcode_xfmr_692_a_1 windings=3 phases=1 xhl=2.040000 xht=2.040000 xlt=0.136000 %imag=0.000 %noloadloss=0.000
~ wdg=1 conn=w kv=2.400 kva=10000.0 %r=0.003000
~ wdg=2 conn=w kv=0.120 kva=1000.0 %r=0.000600
~ wdg=3 conn=w kv=0.120 kva=1000.0 %r=0.000600
new Xfmrcode.subxfmr windings=2 phases=3 xhl=0.008000 %imag=0.000 %noloadloss=0.000
~ wdg=1 conn=d kv=115.000 kva=5000.0 %r=0.000500
~ wdg=2 conn=w kv=4.160 kva=5000.0 %r=0.000500
new Xfmrcode.cimxfmrcode_xfmr_633_c_3 windings=3 phases=1 xhl=2.040000 xht=2.040000 xlt=0.136000 %imag=0.000 %noloadloss=0.000
~ wdg=1 conn=w kv=2.400 kva=10000.0 %r=0.003000
~ wdg=2 conn=w kv=0.120 kva=1000.0 %r=0.000600
~ wdg=3 conn=w kv=0.120 kva=1000.0 %r=0.000600
new Xfmrcode.cimxfmrcode_xfmr_632_a_1 windings=3 phases=1 xhl=2.040000 xht=2.040000 xlt=0.136000 %imag=0.000 %noloadloss=0.000
~ wdg=1 conn=w kv=2.400 kva=10000.0 %r=0.003000
~ wdg=2 conn=w kv=0.120 kva=1000.0 %r=0.000600
~ wdg=3 conn=w kv=0.120 kva=1000.0 %r=0.000600
new Xfmrcode.cimxfmrcode_xfmr_633_c_4 windings=3 phases=1 xhl=2.040000 xht=2.040000 xlt=0.136000 %imag=0.000 %noloadloss=0.000
~ wdg=1 conn=w kv=2.400 kva=10000.0 %r=0.003000
~ wdg=2 conn=w kv=0.120 kva=1000.0 %r=0.000600
~ wdg=3 conn=w kv=0.120 kva=1000.0 %r=0.000600
new Xfmrcode.cimxfmrcode_xfmr_632_a_2 windings=3 phases=1 xhl=2.040000 xht=2.040000 xlt=0.136000 %imag=0.000 %noloadloss=0.000
~ wdg=1 conn=w kv=2.400 kva=10000.0 %r=0.003000
~ wdg=2 conn=w kv=0.120 kva=1000.0 %r=0.000600
~ wdg=3 conn=w kv=0.120 kva=1000.0 %r=0.000600
new Xfmrcode.cimxfmrcode_xfmr_633_c_1 windings=3 phases=1 xhl=2.040000 xht=2.040000 xlt=0.136000 %imag=0.000 %noloadloss=0.000
~ wdg=1 conn=w kv=2.400 kva=10000.0 %r=0.003000
~ wdg=2 conn=w kv=0.120 kva=1000.0 %r=0.000600
~ wdg=3 conn=w kv=0.120 kva=1000.0 %r=0.000600
new Xfmrcode.cimxfmrcode_xfmr_632_a_3 windings=3 phases=1 xhl=2.040000 xht=2.040000 xlt=0.136000 %imag=0.000 %noloadloss=0.000
~ wdg=1 conn=w kv=2.400 kva=10000.0 %r=0.003000
~ wdg=2 conn=w kv=0.120 kva=1000.0 %r=0.000600
~ wdg=3 conn=w kv=0.120 kva=1000.0 %r=0.000600
new Xfmrcode.cimxfmrcode_xfmr_633_c_2 windings=3 phases=1 xhl=2.040000 xht=2.040000 xlt=0.136000 %imag=0.000 %noloadloss=0.000
~ wdg=1 conn=w kv=2.400 kva=10000.0 %r=0.003000
~ wdg=2 conn=w kv=0.120 kva=1000.0 %r=0.000600
~ wdg=3 conn=w kv=0.120 kva=1000.0 %r=0.000600
new Xfmrcode.cimxfmrcode_xfmr_632_a_4 windings=3 phases=1 xhl=2.040000 xht=2.040000 xlt=0.136000 %imag=0.000 %noloadloss=0.000
~ wdg=1 conn=w kv=2.400 kva=10000.0 %r=0.003000
~ wdg=2 conn=w kv=0.120 kva=1000.0 %r=0.000600
~ wdg=3 conn=w kv=0.120 kva=1000.0 %r=0.000600
new Xfmrcode.cimxfmrcode_xfmr_680_c_5 windings=3 phases=1 xhl=2.040000 xht=2.040000 xlt=0.136000 %imag=0.000 %noloadloss=0.000
~ wdg=1 conn=w kv=2.400 kva=10000.0 %r=0.003000
~ wdg=2 conn=w kv=0.120 kva=1000.0 %r=0.000600
~ wdg=3 conn=w kv=0.120 kva=1000.0 %r=0.000600
new Xfmrcode.cimxfmrcode_xfmr_632_a_5 windings=3 phases=1 xhl=2.040000 xht=2.040000 xlt=0.136000 %imag=0.000 %noloadloss=0.000
~ wdg=1 conn=w kv=2.400 kva=10000.0 %r=0.003000
~ wdg=2 conn=w kv=0.120 kva=1000.0 %r=0.000600
~ wdg=3 conn=w kv=0.120 kva=1000.0 %r=0.000600
new Xfmrcode.cimxfmrcode_xfmr_680_c_1 windings=3 phases=1 xhl=2.040000 xht=2.040000 xlt=0.136000 %imag=0.000 %noloadloss=0.000
~ wdg=1 conn=w kv=2.400 kva=10000.0 %r=0.003000
~ wdg=2 conn=w kv=0.120 kva=1000.0 %r=0.000600
~ wdg=3 conn=w kv=0.120 kva=1000.0 %r=0.000600
new Xfmrcode.cimxfmrcode_xfmr_680_c_2 windings=3 phases=1 xhl=2.040000 xht=2.040000 xlt=0.136000 %imag=0.000 %noloadloss=0.000
~ wdg=1 conn=w kv=2.400 kva=10000.0 %r=0.003000
~ wdg=2 conn=w kv=0.120 kva=1000.0 %r=0.000600
~ wdg=3 conn=w kv=0.120 kva=1000.0 %r=0.000600
new Xfmrcode.cimxfmrcode_xfmr_680_c_3 windings=3 phases=1 xhl=2.040000 xht=2.040000 xlt=0.136000 %imag=0.000 %noloadloss=0.000
~ wdg=1 conn=w kv=2.400 kva=10000.0 %r=0.003000
~ wdg=2 conn=w kv=0.120 kva=1000.0 %r=0.000600
~ wdg=3 conn=w kv=0.120 kva=1000.0 %r=0.000600
new Xfmrcode.cimxfmrcode_xfmr_680_c_4 windings=3 phases=1 xhl=2.040000 xht=2.040000 xlt=0.136000 %imag=0.000 %noloadloss=0.000
~ wdg=1 conn=w kv=2.400 kva=10000.0 %r=0.003000
~ wdg=2 conn=w kv=0.120 kva=1000.0 %r=0.000600
~ wdg=3 conn=w kv=0.120 kva=1000.0 %r=0.000600
new Xfmrcode.cimxfmrcode_xfmr_675_a_5 windings=3 phases=1 xhl=2.040000 xht=2.040000 xlt=0.136000 %imag=0.000 %noloadloss=0.000
~ wdg=1 conn=w kv=2.400 kva=10000.0 %r=0.003000
~ wdg=2 conn=w kv=0.120 kva=1000.0 %r=0.000600
~ wdg=3 conn=w kv=0.120 kva=1000.0 %r=0.000600
new Xfmrcode.cimxfmrcode_xfmr_675_a_3 windings=3 phases=1 xhl=2.040000 xht=2.040000 xlt=0.136000 %imag=0.000 %noloadloss=0.000
~ wdg=1 conn=w kv=2.400 kva=10000.0 %r=0.003000
~ wdg=2 conn=w kv=0.120 kva=1000.0 %r=0.000600
~ wdg=3 conn=w kv=0.120 kva=1000.0 %r=0.000600
new Xfmrcode.cimxfmrcode_xfmr_675_a_4 windings=3 phases=1 xhl=2.040000 xht=2.040000 xlt=0.136000 %imag=0.000 %noloadloss=0.000
~ wdg=1 conn=w kv=2.400 kva=10000.0 %r=0.003000
~ wdg=2 conn=w kv=0.120 kva=1000.0 %r=0.000600
~ wdg=3 conn=w kv=0.120 kva=1000.0 %r=0.000600
new Xfmrcode.cimxfmrcode_xfmr_675_a_1 windings=3 phases=1 xhl=2.040000 xht=2.040000 xlt=0.136000 %imag=0.000 %noloadloss=0.000
~ wdg=1 conn=w kv=2.400 kva=10000.0 %r=0.003000
~ wdg=2 conn=w kv=0.120 kva=1000.0 %r=0.000600
~ wdg=3 conn=w kv=0.120 kva=1000.0 %r=0.000600
new Xfmrcode.cimxfmrcode_xfmr_675_a_2 windings=3 phases=1 xhl=2.040000 xht=2.040000 xlt=0.136000 %imag=0.000 %noloadloss=0.000
~ wdg=1 conn=w kv=2.400 kva=10000.0 %r=0.003000
~ wdg=2 conn=w kv=0.120 kva=1000.0 %r=0.000600
~ wdg=3 conn=w kv=0.120 kva=1000.0 %r=0.000600
new Xfmrcode.cimxfmrcode_xfmr_692_a_3 windings=3 phases=1 xhl=2.040000 xht=2.040000 xlt=0.136000 %imag=0.000 %noloadloss=0.000
~ wdg=1 conn=w kv=2.400 kva=10000.0 %r=0.003000
~ wdg=2 conn=w kv=0.120 kva=1000.0 %r=0.000600
~ wdg=3 conn=w kv=0.120 kva=1000.0 %r=0.000600
new Xfmrcode.cimxfmrcode_xfmr_692_a_2 windings=3 phases=1 xhl=2.040000 xht=2.040000 xlt=0.136000 %imag=0.000 %noloadloss=0.000
~ wdg=1 conn=w kv=2.400 kva=10000.0 %r=0.003000
~ wdg=2 conn=w kv=0.120 kva=1000.0 %r=0.000600
~ wdg=3 conn=w kv=0.120 kva=1000.0 %r=0.000600
new Xfmrcode.cimxfmrcode_xfmr_692_a_5 windings=3 phases=1 xhl=2.040000 xht=2.040000 xlt=0.136000 %imag=0.000 %noloadloss=0.000
~ wdg=1 conn=w kv=2.400 kva=10000.0 %r=0.003000
~ wdg=2 conn=w kv=0.120 kva=1000.0 %r=0.000600
~ wdg=3 conn=w kv=0.120 kva=1000.0 %r=0.000600
new Xfmrcode.cimxfmrcode_xfmr_692_a_4 windings=3 phases=1 xhl=2.040000 xht=2.040000 xlt=0.136000 %imag=0.000 %noloadloss=0.000
~ wdg=1 conn=w kv=2.400 kva=10000.0 %r=0.003000
~ wdg=2 conn=w kv=0.120 kva=1000.0 %r=0.000600
~ wdg=3 conn=w kv=0.120 kva=1000.0 %r=0.000600


new Storage.trip_load_680_c_19_battery phases=2 bus1=trip_node_680_c_3.1.2 conn=w kva=25.000 kv=0.208 kwhrated=500.000 kwhstored=500.000 state=idling vminpu=0.9000 LimitCurrent=yes kw=0.00
new Storage.trip_load_632_c_4_battery phases=2 bus1=trip_node_632_c_1.1.2 conn=w kva=25.000 kv=0.208 kwhrated=500.000 kwhstored=500.000 state=idling vminpu=0.9000 LimitCurrent=yes kw=0.00
new Storage.trip_load_671_a_34_battery phases=2 bus1=trip_node_671_a_5.2.1 conn=w kva=25.000 kv=0.208 kwhrated=500.000 kwhstored=500.000 state=idling vminpu=0.9000 LimitCurrent=yes kw=0.00
new Storage.trip_load_652_a_15_battery phases=2 bus1=trip_node_652_a_2.2.1 conn=w kva=25.000 kv=0.208 kwhrated=500.000 kwhstored=500.000 state=idling vminpu=0.9000 LimitCurrent=yes kw=0.00
new Storage.trip_load_675_b_27_battery phases=2 bus1=trip_node_675_b_4.1.2 conn=w kva=25.000 kv=0.208 kwhrated=500.000 kwhstored=500.000 state=idling vminpu=0.9000 LimitCurrent=yes kw=0.00
new Storage.trip_load_692_a_3_battery phases=2 bus1=trip_node_692_a_1.2.1 conn=w kva=25.000 kv=0.208 kwhrated=500.000 kwhstored=500.000 state=idling vminpu=0.9000 LimitCurrent=yes kw=0.00
new Storage.trip_load_675_c_22_battery phases=2 bus1=trip_node_675_c_3.1.2 conn=w kva=25.000 kv=0.208 kwhrated=500.000 kwhstored=500.000 state=idling vminpu=0.9000 LimitCurrent=yes kw=0.00
new Storage.trip_load_675_c_39_battery phases=2 bus1=trip_node_675_c_5.2.1 conn=w kva=25.000 kv=0.208 kwhrated=500.000 kwhstored=500.000 state=idling vminpu=0.9000 LimitCurrent=yes kw=0.00
new Storage.trip_load_632_c_17_battery phases=2 bus1=trip_node_632_c_3.2.1 conn=w kva=25.000 kv=0.208 kwhrated=500.000 kwhstored=500.000 state=idling vminpu=0.9000 LimitCurrent=yes kw=0.00
new Storage.trip_load_645_c_7_battery phases=2 bus1=trip_node_645_c_1.1.2 conn=w kva=25.000 kv=0.208 kwhrated=500.000 kwhstored=500.000 state=idling vminpu=0.9000 LimitCurrent=yes kw=0.00
new Storage.trip_load_675_b_10_battery phases=2 bus1=trip_node_675_b_2.1.2 conn=w kva=25.000 kv=0.208 kwhrated=500.000 kwhstored=500.000 state=idling vminpu=0.9000 LimitCurrent=yes kw=0.00
new Storage.trip_load_632_a_40_battery phases=2 bus1=trip_node_632_a_5.2.1 conn=w kva=25.000 kv=0.208 kwhrated=500.000 kwhstored=500.000 state=idling vminpu=0.9000 LimitCurrent=yes kw=0.00
new Storage.trip_load_684_c_30_battery phases=2 bus1=trip_node_684_c_4.2.1 conn=w kva=25.000 kv=0.208 kwhrated=500.000 kwhstored=500.000 state=idling vminpu=0.9000 LimitCurrent=yes kw=0.00
new Storage.trip_load_692_c_19_battery phases=2 bus1=trip_node_692_c_3.1.2 conn=w kva=25.000 kv=0.208 kwhrated=500.000 kwhstored=500.000 state=idling vminpu=0.9000 LimitCurrent=yes kw=0.00
new Storage.trip_load_675_a_15_battery phases=2 bus1=trip_node_675_a_2.2.1 conn=w kva=25.000 kv=0.208 kwhrated=500.000 kwhstored=500.000 state=idling vminpu=0.9000 LimitCurrent=yes kw=0.00
new Storage.trip_load_684_a_23_battery phases=2 bus1=trip_node_684_a_3.2.1 conn=w kva=25.000 kv=0.208 kwhrated=500.000 kwhstored=500.000 state=idling vminpu=0.9000 LimitCurrent=yes kw=0.00
new Storage.trip_load_632_c_14_battery phases=2 bus1=trip_node_632_c_2.2.1 conn=w kva=25.000 kv=0.208 kwhrated=500.000 kwhstored=500.000 state=idling vminpu=0.9000 LimitCurrent=yes kw=0.00
new Storage.trip_load_632_b_9_battery phases=2 bus1=trip_node_632_b_2.2.1 conn=w kva=25.000 kv=0.208 kwhrated=500.000 kwhstored=500.000 state=idling vminpu=0.9000 LimitCurrent=yes kw=0.00
new Storage.trip_load_671_a_37_battery phases=2 bus1=trip_node_671_a_5.2.1 conn=w kva=25.000 kv=0.208 kwhrated=500.000 kwhstored=500.000 state=idling vminpu=0.9000 LimitCurrent=yes kw=0.00
new Storage.trip_load_633_b_9_battery phases=2 bus1=trip_node_633_b_2.2.1 conn=w kva=25.000 kv=0.208 kwhrated=500.000 kwhstored=500.000 state=idling vminpu=0.9000 LimitCurrent=yes kw=0.00
new Storage.trip_load_675_c_25_battery phases=2 bus1=trip_node_675_c_4.1.2 conn=w kva=25.000 kv=0.208 kwhrated=500.000 kwhstored=500.000 state=idling vminpu=0.9000 LimitCurrent=yes kw=0.00
new Storage.trip_load_671_a_31_battery phases=2 bus1=trip_node_671_a_4.2.1 conn=w kva=25.000 kv=0.208 kwhrated=500.000 kwhstored=500.000 state=idling vminpu=0.9000 LimitCurrent=yes kw=0.00
new Storage.trip_load_675_a_18_battery phases=2 bus1=trip_node_675_a_3.2.1 conn=w kva=25.000 kv=0.208 kwhrated=500.000 kwhstored=500.000 state=idling vminpu=0.9000 LimitCurrent=yes kw=0.00
new Storage.trip_load_652_a_29_battery phases=2 bus1=trip_node_652_a_4.2.1 conn=w kva=25.000 kv=0.208 kwhrated=500.000 kwhstored=500.000 state=idling vminpu=0.9000 LimitCurrent=yes kw=0.00
new Storage.trip_load_652_a_12_battery phases=2 bus1=trip_node_652_a_2.2.1 conn=w kva=25.000 kv=0.208 kwhrated=500.000 kwhstored=500.000 state=idling vminpu=0.9000 LimitCurrent=yes kw=0.00
new Storage.trip_load_633_a_40_battery phases=2 bus1=trip_node_633_a_5.2.1 conn=w kva=25.000 kv=0.208 kwhrated=500.000 kwhstored=500.000 state=idling vminpu=0.9000 LimitCurrent=yes kw=0.00
new Storage.trip_load_675_b_13_battery phases=2 bus1=trip_node_675_b_2.1.2 conn=w kva=25.000 kv=0.208 kwhrated=500.000 kwhstored=500.000 state=idling vminpu=0.9000 LimitCurrent=yes kw=0.00
new Storage.trip_load_692_a_31_battery phases=2 bus1=trip_node_692_a_4.1.2 conn=w kva=25.000 kv=0.208 kwhrated=500.000 kwhstored=500.000 state=idling vminpu=0.9000 LimitCurrent=yes kw=0.00
new Storage.trip_load_675_a_29_battery phases=2 bus1=trip_node_675_a_4.2.1 conn=w kva=25.000 kv=0.208 kwhrated=500.000 kwhstored=500.000 state=idling vminpu=0.9000 LimitCurrent=yes kw=0.00
new Storage.trip_load_684_a_20_battery phases=2 bus1=trip_node_684_a_3.2.1 conn=w kva=25.000 kv=0.208 kwhrated=500.000 kwhstored=500.000 state=idling vminpu=0.9000 LimitCurrent=yes kw=0.00
new Storage.trip_load_675_b_38_battery phases=2 bus1=trip_node_675_b_5.1.2 conn=w kva=25.000 kv=0.208 kwhrated=500.000 kwhstored=500.000 state=idling vminpu=0.9000 LimitCurrent=yes kw=0.00
new Storage.trip_load_692_b_40_battery phases=2 bus1=trip_node_692_b_5.1.2 conn=w kva=25.000 kv=0.208 kwhrated=500.000 kwhstored=500.000 state=idling vminpu=0.9000 LimitCurrent=yes kw=0.00
new Storage.trip_load_675_a_26_battery phases=2 bus1=trip_node_675_a_4.1.2 conn=w kva=25.000 kv=0.208 kwhrated=500.000 kwhstored=500.000 state=idling vminpu=0.9000 LimitCurrent=yes kw=0.00
new Storage.trip_load_680_b_18_battery phases=2 bus1=trip_node_680_b_3.1.2 conn=w kva=25.000 kv=0.208 kwhrated=500.000 kwhstored=500.000 state=idling vminpu=0.9000 LimitCurrent=yes kw=0.00
new Storage.trip_load_633_a_32_battery phases=2 bus1=trip_node_633_a_4.2.1 conn=w kva=25.000 kv=0.208 kwhrated=500.000 kwhstored=500.000 state=idling vminpu=0.9000 LimitCurrent=yes kw=0.00
new Storage.trip_load_680_b_40_battery phases=2 bus1=trip_node_680_b_5.1.2 conn=w kva=25.000 kv=0.208 kwhrated=500.000 kwhstored=500.000 state=idling vminpu=0.9000 LimitCurrent=yes kw=0.00
new Storage.trip_load_692_b_1_battery phases=2 bus1=trip_node_692_b_1.2.1 conn=w kva=25.000 kv=0.208 kwhrated=500.000 kwhstored=500.000 state=idling vminpu=0.9000 LimitCurrent=yes kw=0.00
new Storage.trip_load_645_c_4_battery phases=2 bus1=trip_node_645_c_1.2.1 conn=w kva=25.000 kv=0.208 kwhrated=500.000 kwhstored=500.000 state=idling vminpu=0.9000 LimitCurrent=yes kw=0.00
new Storage.trip_load_671_c_30_battery phases=2 bus1=trip_node_671_c_4.1.2 conn=w kva=25.000 kv=0.208 kwhrated=500.000 kwhstored=500.000 state=idling vminpu=0.9000 LimitCurrent=yes kw=0.00
new Storage.trip_load_684_a_29_battery phases=2 bus1=trip_node_684_a_4.1.2 conn=w kva=25.000 kv=0.208 kwhrated=500.000 kwhstored=500.000 state=idling vminpu=0.9000 LimitCurrent=yes kw=0.00
new Storage.trip_load_692_b_18_battery phases=2 bus1=trip_node_692_b_3.2.1 conn=w kva=25.000 kv=0.208 kwhrated=500.000 kwhstored=500.000 state=idling vminpu=0.9000 LimitCurrent=yes kw=0.00
new Storage.trip_load_692_a_9_battery phases=2 bus1=trip_node_692_a_2.2.1 conn=w kva=25.000 kv=0.208 kwhrated=500.000 kwhstored=500.000 state=idling vminpu=0.9000 LimitCurrent=yes kw=0.00
new Storage.trip_load_692_c_13_battery phases=2 bus1=trip_node_692_c_2.1.2 conn=w kva=25.000 kv=0.208 kwhrated=500.000 kwhstored=500.000 state=idling vminpu=0.9000 LimitCurrent=yes kw=0.00
new Storage.trip_load_684_c_36_battery phases=2 bus1=trip_node_684_c_5.2.1 conn=w kva=25.000 kv=0.208 kwhrated=500.000 kwhstored=500.000 state=idling vminpu=0.9000 LimitCurrent=yes kw=0.00
new Storage.trip_load_675_a_3_battery phases=2 bus1=trip_node_675_a_1.2.1 conn=w kva=25.000 kv=0.208 kwhrated=500.000 kwhstored=500.000 state=idling vminpu=0.9000 LimitCurrent=yes kw=0.00
new Storage.trip_load_675_c_11_battery phases=2 bus1=trip_node_675_c_2.2.1 conn=w kva=25.000 kv=0.208 kwhrated=500.000 kwhstored=500.000 state=idling vminpu=0.9000 LimitCurrent=yes kw=0.00
new Storage.trip_load_645_b_30_battery phases=2 bus1=trip_node_645_b_4.2.1 conn=w kva=25.000 kv=0.208 kwhrated=500.000 kwhstored=500.000 state=idling vminpu=0.9000 LimitCurrent=yes kw=0.00
new Storage.trip_load_684_a_12_battery phases=2 bus1=trip_node_684_a_2.1.2 conn=w kva=25.000 kv=0.208 kwhrated=500.000 kwhstored=500.000 state=idling vminpu=0.9000 LimitCurrent=yes kw=0.00
new Storage.trip_load_692_a_34_battery phases=2 bus1=trip_node_692_a_5.2.1 conn=w kva=25.000 kv=0.208 kwhrated=500.000 kwhstored=500.000 state=idling vminpu=0.9000 LimitCurrent=yes kw=0.00
new Storage.trip_load_671_b_40_battery phases=2 bus1=trip_node_671_b_5.2.1 conn=w kva=25.000 kv=0.208 kwhrated=500.000 kwhstored=500.000 state=idling vminpu=0.9000 LimitCurrent=yes kw=0.00
new Storage.trip_load_671_a_3_battery phases=2 bus1=trip_node_671_a_1.1.2 conn=w kva=25.000 kv=0.208 kwhrated=500.000 kwhstored=500.000 state=idling vminpu=0.9000 LimitCurrent=yes kw=0.00
new Storage.trip_load_633_b_6_battery phases=2 bus1=trip_node_633_b_1.1.2 conn=w kva=25.000 kv=0.208 kwhrated=500.000 kwhstored=500.000 state=idling vminpu=0.9000 LimitCurrent=yes kw=0.00
new Storage.trip_load_633_b_19_battery phases=2 bus1=trip_node_633_b_3.2.1 conn=w kva=25.000 kv=0.208 kwhrated=500.000 kwhstored=500.000 state=idling vminpu=0.9000 LimitCurrent=yes kw=0.00
new Storage.trip_load_671_b_21_battery phases=2 bus1=trip_node_671_b_3.2.1 conn=w kva=25.000 kv=0.208 kwhrated=500.000 kwhstored=500.000 state=idling vminpu=0.9000 LimitCurrent=yes kw=0.00
new Storage.trip_load_671_c_19_battery phases=2 bus1=trip_node_671_c_3.1.2 conn=w kva=25.000 kv=0.208 kwhrated=500.000 kwhstored=500.000 state=idling vminpu=0.9000 LimitCurrent=yes kw=0.00
new Storage.trip_load_675_b_21_battery phases=2 bus1=trip_node_675_b_3.1.2 conn=w kva=25.000 kv=0.208 kwhrated=500.000 kwhstored=500.000 state=idling vminpu=0.9000 LimitCurrent=yes kw=0.00
new Storage.trip_load_633_a_35_battery phases=2 bus1=trip_node_633_a_5.1.2 conn=w kva=25.000 kv=0.208 kwhrated=500.000 kwhstored=500.000 state=idling vminpu=0.9000 LimitCurrent=yes kw=0.00
new Storage.trip_load_633_c_14_battery phases=2 bus1=trip_node_633_c_2.2.1 conn=w kva=25.000 kv=0.208 kwhrated=500.000 kwhstored=500.000 state=idling vminpu=0.9000 LimitCurrent=yes kw=0.00
new Storage.trip_load_633_b_16_battery phases=2 bus1=trip_node_633_b_2.1.2 conn=w kva=25.000 kv=0.208 kwhrated=500.000 kwhstored=500.000 state=idling vminpu=0.9000 LimitCurrent=yes kw=0.00
new Storage.trip_load_671_a_23_battery phases=2 bus1=trip_node_671_a_3.1.2 conn=w kva=25.000 kv=0.208 kwhrated=500.000 kwhstored=500.000 state=idling vminpu=0.9000 LimitCurrent=yes kw=0.00
new Storage.trip_load_632_b_16_battery phases=2 bus1=trip_node_632_b_2.2.1 conn=w kva=25.000 kv=0.208 kwhrated=500.000 kwhstored=500.000 state=idling vminpu=0.9000 LimitCurrent=yes kw=0.00
new Storage.trip_load_675_a_23_battery phases=2 bus1=trip_node_675_a_3.2.1 conn=w kva=25.000 kv=0.208 kwhrated=500.000 kwhstored=500.000 state=idling vminpu=0.9000 LimitCurrent=yes kw=0.00
new Storage.trip_load_632_a_18_battery phases=2 bus1=trip_node_632_a_3.1.2 conn=w kva=25.000 kv=0.208 kwhrated=500.000 kwhstored=500.000 state=idling vminpu=0.9000 LimitCurrent=yes kw=0.00
new Storage.trip_load_675_c_14_battery phases=2 bus1=trip_node_675_c_2.1.2 conn=w kva=25.000 kv=0.208 kwhrated=500.000 kwhstored=500.000 state=idling vminpu=0.9000 LimitCurrent=yes kw=0.00
new Storage.trip_load_675_c_28_battery phases=2 bus1=trip_node_675_c_4.2.1 conn=w kva=25.000 kv=0.208 kwhrated=500.000 kwhstored=500.000 state=idling vminpu=0.9000 LimitCurrent=yes kw=0.00
new Storage.trip_load_645_b_33_battery phases=2 bus1=trip_node_645_b_5.1.2 conn=w kva=25.000 kv=0.208 kwhrated=500.000 kwhstored=500.000 state=idling vminpu=0.9000 LimitCurrent=yes kw=0.00
new Storage.trip_load_675_a_6_battery phases=2 bus1=trip_node_675_a_1.2.1 conn=w kva=25.000 kv=0.208 kwhrated=500.000 kwhstored=500.000 state=idling vminpu=0.9000 LimitCurrent=yes kw=0.00
new Storage.trip_load_692_a_6_battery phases=2 bus1=trip_node_692_a_1.2.1 conn=w kva=25.000 kv=0.208 kwhrated=500.000 kwhstored=500.000 state=idling vminpu=0.9000 LimitCurrent=yes kw=0.00
new Storage.trip_load_632_a_15_battery phases=2 bus1=trip_node_632_a_2.2.1 conn=w kva=25.000 kv=0.208 kwhrated=500.000 kwhstored=500.000 state=idling vminpu=0.9000 LimitCurrent=yes kw=0.00
new Storage.trip_load_684_c_33_battery phases=2 bus1=trip_node_684_c_5.2.1 conn=w kva=25.000 kv=0.208 kwhrated=500.000 kwhstored=500.000 state=idling vminpu=0.9000 LimitCurrent=yes kw=0.00
new Storage.trip_load_611_c_1_battery phases=2 bus1=trip_node_611_c_1.2.1 conn=w kva=25.000 kv=0.208 kwhrated=500.000 kwhstored=500.000 state=idling vminpu=0.9000 LimitCurrent=yes kw=0.00
new Storage.trip_load_632_c_1_battery phases=2 bus1=trip_node_632_c_1.1.2 conn=w kva=25.000 kv=0.208 kwhrated=500.000 kwhstored=500.000 state=idling vminpu=0.9000 LimitCurrent=yes kw=0.00
new Storage.trip_load_671_a_6_battery phases=2 bus1=trip_node_671_a_1.2.1 conn=w kva=25.000 kv=0.208 kwhrated=500.000 kwhstored=500.000 state=idling vminpu=0.9000 LimitCurrent=yes kw=0.00
new Storage.trip_load_632_c_7_battery phases=2 bus1=trip_node_632_c_1.1.2 conn=w kva=25.000 kv=0.208 kwhrated=500.000 kwhstored=500.000 state=idling vminpu=0.9000 LimitCurrent=yes kw=0.00
new Storage.trip_load_675_a_20_battery phases=2 bus1=trip_node_675_a_3.1.2 conn=w kva=25.000 kv=0.208 kwhrated=500.000 kwhstored=500.000 state=idling vminpu=0.9000 LimitCurrent=yes kw=0.00
new Storage.trip_load_680_b_1_battery phases=2 bus1=trip_node_680_b_1.2.1 conn=w kva=25.000 kv=0.208 kwhrated=500.000 kwhstored=500.000 state=idling vminpu=0.9000 LimitCurrent=yes kw=0.00
new Storage.trip_load_684_a_26_battery phases=2 bus1=trip_node_684_a_4.2.1 conn=w kva=25.000 kv=0.208 kwhrated=500.000 kwhstored=500.000 state=idling vminpu=0.9000 LimitCurrent=yes kw=0.00
new Storage.trip_load_611_c_7_battery phases=2 bus1=trip_node_611_c_1.1.2 conn=w kva=25.000 kv=0.208 kwhrated=500.000 kwhstored=500.000 state=idling vminpu=0.9000 LimitCurrent=yes kw=0.00
new Storage.trip_load_633_c_17_battery phases=2 bus1=trip_node_633_c_3.1.2 conn=w kva=25.000 kv=0.208 kwhrated=500.000 kwhstored=500.000 state=idling vminpu=0.9000 LimitCurrent=yes kw=0.00
new Storage.trip_load_680_a_17_battery phases=2 bus1=trip_node_680_a_3.1.2 conn=w kva=25.000 kv=0.208 kwhrated=500.000 kwhstored=500.000 state=idling vminpu=0.9000 LimitCurrent=yes kw=0.00
new Storage.trip_load_645_c_28_battery phases=2 bus1=trip_node_645_c_4.2.1 conn=w kva=25.000 kv=0.208 kwhrated=500.000 kwhstored=500.000 state=idling vminpu=0.9000 LimitCurrent=yes kw=0.00
new Storage.trip_load_671_b_24_battery phases=2 bus1=trip_node_671_b_3.1.2 conn=w kva=25.000 kv=0.208 kwhrated=500.000 kwhstored=500.000 state=idling vminpu=0.9000 LimitCurrent=yes kw=0.00
new Storage.trip_load_611_c_31_battery phases=2 bus1=trip_node_611_c_4.2.1 conn=w kva=25.000 kv=0.208 kwhrated=500.000 kwhstored=500.000 state=idling vminpu=0.9000 LimitCurrent=yes kw=0.00
new Storage.trip_load_632_b_19_battery phases=2 bus1=trip_node_632_b_3.1.2 conn=w kva=25.000 kv=0.208 kwhrated=500.000 kwhstored=500.000 state=idling vminpu=0.9000 LimitCurrent=yes kw=0.00
new Storage.trip_load_633_a_38_battery phases=2 bus1=trip_node_633_a_5.1.2 conn=w kva=25.000 kv=0.208 kwhrated=500.000 kwhstored=500.000 state=idling vminpu=0.9000 LimitCurrent=yes kw=0.00
new Storage.trip_load_633_b_3_battery phases=2 bus1=trip_node_633_b_1.1.2 conn=w kva=25.000 kv=0.208 kwhrated=500.000 kwhstored=500.000 state=idling vminpu=0.9000 LimitCurrent=yes kw=0.00
new Storage.trip_load_675_b_24_battery phases=2 bus1=trip_node_675_b_3.2.1 conn=w kva=25.000 kv=0.208 kwhrated=500.000 kwhstored=500.000 state=idling vminpu=0.9000 LimitCurrent=yes kw=0.00
new Storage.trip_load_652_a_40_battery phases=2 bus1=trip_node_652_a_5.2.1 conn=w kva=25.000 kv=0.208 kwhrated=500.000 kwhstored=500.000 state=idling vminpu=0.9000 LimitCurrent=yes kw=0.00
new Storage.trip_load_692_c_16_battery phases=2 bus1=trip_node_692_c_2.2.1 conn=w kva=25.000 kv=0.208 kwhrated=500.000 kwhstored=500.000 state=idling vminpu=0.9000 LimitCurrent=yes kw=0.00
new Storage.trip_load_633_b_13_battery phases=2 bus1=trip_node_633_b_2.2.1 conn=w kva=25.000 kv=0.208 kwhrated=500.000 kwhstored=500.000 state=idling vminpu=0.9000 LimitCurrent=yes kw=0.00
new Storage.trip_load_675_a_9_battery phases=2 bus1=trip_node_675_a_2.1.2 conn=w kva=25.000 kv=0.208 kwhrated=500.000 kwhstored=500.000 state=idling vminpu=0.9000 LimitCurrent=yes kw=0.00
new Storage.trip_load_671_a_20_battery phases=2 bus1=trip_node_671_a_3.1.2 conn=w kva=25.000 kv=0.208 kwhrated=500.000 kwhstored=500.000 state=idling vminpu=0.9000 LimitCurrent=yes kw=0.00
new Storage.trip_load_671_a_9_battery phases=2 bus1=trip_node_671_a_2.1.2 conn=w kva=25.000 kv=0.208 kwhrated=500.000 kwhstored=500.000 state=idling vminpu=0.9000 LimitCurrent=yes kw=0.00
new Storage.trip_load_652_a_18_battery phases=2 bus1=trip_node_652_a_3.2.1 conn=w kva=25.000 kv=0.208 kwhrated=500.000 kwhstored=500.000 state=idling vminpu=0.9000 LimitCurrent=yes kw=0.00
new Storage.trip_load_632_c_39_battery phases=2 bus1=trip_node_632_c_5.2.1 conn=w kva=25.000 kv=0.208 kwhrated=500.000 kwhstored=500.000 state=idling vminpu=0.9000 LimitCurrent=yes kw=0.00
new Storage.trip_load_611_c_4_battery phases=2 bus1=trip_node_611_c_1.1.2 conn=w kva=25.000 kv=0.208 kwhrated=500.000 kwhstored=500.000 state=idling vminpu=0.9000 LimitCurrent=yes kw=0.00
new Storage.trip_load_692_a_37_battery phases=2 bus1=trip_node_692_a_5.2.1 conn=w kva=25.000 kv=0.208 kwhrated=500.000 kwhstored=500.000 state=idling vminpu=0.9000 LimitCurrent=yes kw=0.00
new Storage.trip_load_633_a_5_battery phases=2 bus1=trip_node_633_a_1.1.2 conn=w kva=25.000 kv=0.208 kwhrated=500.000 kwhstored=500.000 state=idling vminpu=0.9000 LimitCurrent=yes kw=0.00
new Storage.trip_load_680_c_7_battery phases=2 bus1=trip_node_680_c_1.1.2 conn=w kva=25.000 kv=0.208 kwhrated=500.000 kwhstored=500.000 state=idling vminpu=0.9000 LimitCurrent=yes kw=0.00
new Storage.trip_load_645_b_36_battery phases=2 bus1=trip_node_645_b_5.1.2 conn=w kva=25.000 kv=0.208 kwhrated=500.000 kwhstored=500.000 state=idling vminpu=0.9000 LimitCurrent=yes kw=0.00
new Storage.trip_load_633_b_10_battery phases=2 bus1=trip_node_633_b_2.1.2 conn=w kva=25.000 kv=0.208 kwhrated=500.000 kwhstored=500.000 state=idling vminpu=0.9000 LimitCurrent=yes kw=0.00
new Storage.trip_load_632_c_36_battery phases=2 bus1=trip_node_632_c_5.2.1 conn=w kva=25.000 kv=0.208 kwhrated=500.000 kwhstored=500.000 state=idling vminpu=0.9000 LimitCurrent=yes kw=0.00
new Storage.trip_load_671_c_4_battery phases=2 bus1=trip_node_671_c_1.2.1 conn=w kva=25.000 kv=0.208 kwhrated=500.000 kwhstored=500.000 state=idling vminpu=0.9000 LimitCurrent=yes kw=0.00
new Storage.trip_load_680_b_35_battery phases=2 bus1=trip_node_680_b_5.1.2 conn=w kva=25.000 kv=0.208 kwhrated=500.000 kwhstored=500.000 state=idling vminpu=0.9000 LimitCurrent=yes kw=0.00
new Storage.trip_load_671_b_27_battery phases=2 bus1=trip_node_671_b_4.2.1 conn=w kva=25.000 kv=0.208 kwhrated=500.000 kwhstored=500.000 state=idling vminpu=0.9000 LimitCurrent=yes kw=0.00
new Storage.trip_load_611_c_34_battery phases=2 bus1=trip_node_611_c_5.2.1 conn=w kva=25.000 kv=0.208 kwhrated=500.000 kwhstored=500.000 state=idling vminpu=0.9000 LimitCurrent=yes kw=0.00
new Storage.trip_load_633_c_22_battery phases=2 bus1=trip_node_633_c_3.2.1 conn=w kva=25.000 kv=0.208 kwhrated=500.000 kwhstored=500.000 state=idling vminpu=0.9000 LimitCurrent=yes kw=0.00
new Storage.trip_load_680_a_23_battery phases=2 bus1=trip_node_680_a_3.1.2 conn=w kva=25.000 kv=0.208 kwhrated=500.000 kwhstored=500.000 state=idling vminpu=0.9000 LimitCurrent=yes kw=0.00
new Storage.trip_load_671_a_15_battery phases=2 bus1=trip_node_671_a_2.2.1 conn=w kva=25.000 kv=0.208 kwhrated=500.000 kwhstored=500.000 state=idling vminpu=0.9000 LimitCurrent=yes kw=0.00
new Storage.trip_load_671_b_10_battery phases=2 bus1=trip_node_671_b_2.2.1 conn=w kva=25.000 kv=0.208 kwhrated=500.000 kwhstored=500.000 state=idling vminpu=0.9000 LimitCurrent=yes kw=0.00
new Storage.trip_load_633_a_24_battery phases=2 bus1=trip_node_680_b_3.1.2 conn=w kva=25.000 kv=0.208 kwhrated=500.000 kwhstored=500.000 state=idling vminpu=0.9000 LimitCurrent=yes kw=0.00
new Storage.trip_load_652_a_3_battery phases=2 bus1=trip_node_652_a_1.2.1 conn=w kva=25.000 kv=0.208 kwhrated=500.000 kwhstored=500.000 state=idling vminpu=0.9000 LimitCurrent=yes kw=0.00
new Storage.trip_load_692_c_24_battery phases=2 bus1=trip_node_692_c_3.2.1 conn=w kva=25.000 kv=0.208 kwhrated=500.000 kwhstored=500.000 state=idling vminpu=0.9000 LimitCurrent=yes kw=0.00
new Storage.trip_load_632_a_38_battery phases=2 bus1=trip_node_632_a_5.1.2 conn=w kva=25.000 kv=0.208 kwhrated=500.000 kwhstored=500.000 state=idling vminpu=0.9000 LimitCurrent=yes kw=0.00
new Storage.trip_load_611_c_28_battery phases=2 bus1=trip_node_611_c_4.2.1 conn=w kva=25.000 kv=0.208 kwhrated=500.000 kwhstored=500.000 state=idling vminpu=0.9000 LimitCurrent=yes kw=0.00
new Storage.trip_load_675_b_4_battery phases=2 bus1=trip_node_675_b_1.2.1 conn=w kva=25.000 kv=0.208 kwhrated=500.000 kwhstored=500.000 state=idling vminpu=0.9000 LimitCurrent=yes kw=0.00
new Storage.trip_load_692_a_14_battery phases=2 bus1=trip_node_692_a_2.1.2 conn=w kva=25.000 kv=0.208 kwhrated=500.000 kwhstored=500.000 state=idling vminpu=0.9000 LimitCurrent=yes kw=0.00
new Storage.trip_load_684_c_28_battery phases=2 bus1=trip_node_684_c_4.2.1 conn=w kva=25.000 kv=0.208 kwhrated=500.000 kwhstored=500.000 state=idling vminpu=0.9000 LimitCurrent=yes kw=0.00
new Storage.trip_load_632_a_21_battery phases=2 bus1=trip_node_632_a_3.1.2 conn=w kva=25.000 kv=0.208 kwhrated=500.000 kwhstored=500.000 state=idling vminpu=0.9000 LimitCurrent=yes kw=0.00
new Storage.trip_load_645_c_22_battery phases=2 bus1=trip_node_645_c_3.2.1 conn=w kva=25.000 kv=0.208 kwhrated=500.000 kwhstored=500.000 state=idling vminpu=0.9000 LimitCurrent=yes kw=0.00
new Storage.trip_load_680_c_24_battery phases=2 bus1=trip_node_680_c_3.1.2 conn=w kva=25.000 kv=0.208 kwhrated=500.000 kwhstored=500.000 state=idling vminpu=0.9000 LimitCurrent=yes kw=0.00
new Storage.trip_load_633_b_33_battery phases=2 bus1=trip_node_633_b_5.2.1 conn=w kva=25.000 kv=0.208 kwhrated=500.000 kwhstored=500.000 state=idling vminpu=0.9000 LimitCurrent=yes kw=0.00
new Storage.trip_load_680_b_12_battery phases=2 bus1=trip_node_680_b_2.2.1 conn=w kva=25.000 kv=0.208 kwhrated=500.000 kwhstored=500.000 state=idling vminpu=0.9000 LimitCurrent=yes kw=0.00
new Storage.trip_load_692_a_26_battery phases=2 bus1=trip_node_692_a_4.1.2 conn=w kva=25.000 kv=0.208 kwhrated=500.000 kwhstored=500.000 state=idling vminpu=0.9000 LimitCurrent=yes kw=0.00
new Storage.trip_load_611_c_11_battery phases=2 bus1=trip_node_611_c_2.2.1 conn=w kva=25.000 kv=0.208 kwhrated=500.000 kwhstored=500.000 state=idling vminpu=0.9000 LimitCurrent=yes kw=0.00
new Storage.trip_load_684_a_18_battery phases=2 bus1=trip_node_684_a_3.1.2 conn=w kva=25.000 kv=0.208 kwhrated=500.000 kwhstored=500.000 state=idling vminpu=0.9000 LimitCurrent=yes kw=0.00
new Storage.trip_load_632_b_33_battery phases=2 bus1=trip_node_632_b_5.1.2 conn=w kva=25.000 kv=0.208 kwhrated=500.000 kwhstored=500.000 state=idling vminpu=0.9000 LimitCurrent=yes kw=0.00
new Storage.trip_load_680_c_38_battery phases=2 bus1=trip_node_680_c_5.1.2 conn=w kva=25.000 kv=0.208 kwhrated=500.000 kwhstored=500.000 state=idling vminpu=0.9000 LimitCurrent=yes kw=0.00
new Storage.trip_load_692_b_29_battery phases=2 bus1=trip_node_692_b_4.2.1 conn=w kva=25.000 kv=0.208 kwhrated=500.000 kwhstored=500.000 state=idling vminpu=0.9000 LimitCurrent=yes kw=0.00
new Storage.trip_load_633_a_18_battery phases=2 bus1=trip_node_633_a_3.1.2 conn=w kva=25.000 kv=0.208 kwhrated=500.000 kwhstored=500.000 state=idling vminpu=0.9000 LimitCurrent=yes kw=0.00
new Storage.trip_load_675_b_9_battery phases=2 bus1=trip_node_675_b_2.2.1 conn=w kva=25.000 kv=0.208 kwhrated=500.000 kwhstored=500.000 state=idling vminpu=0.9000 LimitCurrent=yes kw=0.00
new Storage.trip_load_692_c_30_battery phases=2 bus1=trip_node_692_c_4.2.1 conn=w kva=25.000 kv=0.208 kwhrated=500.000 kwhstored=500.000 state=idling vminpu=0.9000 LimitCurrent=yes kw=0.00
new Storage.trip_load_645_c_34_battery phases=2 bus1=trip_node_645_c_5.2.1 conn=w kva=25.000 kv=0.208 kwhrated=500.000 kwhstored=500.000 state=idling vminpu=0.9000 LimitCurrent=yes kw=0.00
...